Version 4
SHEET 1 1016 1516
WIRE 624 -432 624 -512
WIRE 672 -432 672 -512
WIRE 720 -432 720 -512
WIRE 768 -432 768 -512
WIRE 880 -288 848 -288
WIRE 624 -64 624 -112
WIRE 624 -64 416 -64
WIRE 688 -48 688 -112
WIRE 688 -48 464 -48
WIRE 752 0 752 -112
WIRE 752 0 512 0
WIRE 368 32 368 -512
WIRE 416 32 416 -64
WIRE 464 32 464 -48
WIRE 512 32 512 0
WIRE 864 208 864 -512
WIRE 368 400 368 352
WIRE 368 400 128 400
WIRE 432 432 432 352
WIRE 432 432 176 432
WIRE 496 464 496 352
WIRE 496 464 224 464
WIRE 80 528 80 -512
WIRE 128 528 128 400
WIRE 176 528 176 432
WIRE 224 528 224 464
WIRE 80 880 80 848
WIRE 80 880 -128 880
WIRE 144 896 144 848
WIRE 144 896 -80 896
WIRE 208 912 208 848
WIRE 208 912 -32 912
WIRE -176 976 -176 -512
WIRE -128 976 -128 880
WIRE -80 976 -80 896
WIRE -32 976 -32 912
WIRE -176 1360 -176 1296
WIRE -112 1360 -112 1296
WIRE -48 1360 -48 1296
WIRE 0 1360 0 1296
WIRE 256 1360 256 848
WIRE 544 1360 544 352
WIRE 800 1360 800 -112
WIRE 864 1360 864 272
FLAG 864 -512 X1
IOPIN 864 -512 In
FLAG 768 -512 X2
IOPIN 768 -512 In
FLAG 720 -512 X3
IOPIN 720 -512 In
FLAG 672 -512 X4
IOPIN 672 -512 In
FLAG 624 -512 X5
IOPIN 624 -512 In
FLAG 368 -512 X6
IOPIN 368 -512 In
FLAG 80 -512 X7
IOPIN 80 -512 In
FLAG -176 -512 X8
IOPIN -176 -512 In
FLAG 864 1360 Y1
IOPIN 864 1360 Out
FLAG 800 1360 Y2
IOPIN 800 1360 Out
FLAG 544 1360 Y3
IOPIN 544 1360 Out
FLAG 256 1360 Y4
IOPIN 256 1360 Out
FLAG 0 1360 Y5
IOPIN 0 1360 Out
FLAG -48 1360 Y6
IOPIN -48 1360 Out
FLAG -112 1360 Y7
IOPIN -112 1360 Out
FLAG -176 1360 Y8
IOPIN -176 1360 Out
FLAG 880 -288 VDD
FLAG 592 176 VDD
FLAG 304 672 VDD
FLAG 48 1120 VDD
SYMBOL FUNC_BLOCK 656 -256 R0
SYMATTR InstName X1
SYMBOL FUNC_BLOCK 400 208 R0
SYMATTR InstName X2
SYMBOL FUNC_BLOCK 112 704 R0
SYMATTR InstName X3
SYMBOL FUNC_BLOCK -144 1152 R0
SYMATTR InstName X4
SYMBOL Digital\\buf1 928 208 R90
WINDOW 0 21 -74 VRight 2
SYMATTR InstName buffer404
