Version 4
SHEET 1 880 680
WIRE 448 144 336 144
WIRE 624 320 288 320
WIRE 704 320 624 320
WIRE -176 352 -256 352
WIRE 112 352 112 320
WIRE 112 352 -176 352
WIRE 160 384 80 384
WIRE 176 384 176 320
WIRE 176 384 160 384
WIRE 240 384 240 320
WIRE 352 384 240 384
WIRE 432 384 352 384
WIRE -256 416 -256 352
WIRE -176 416 -176 352
WIRE 80 416 80 384
WIRE 160 416 160 384
WIRE 352 416 352 384
WIRE 432 416 432 384
WIRE 624 416 624 320
WIRE 704 416 704 320
FLAG -256 496 0
FLAG -176 480 0
FLAG 80 496 0
FLAG 160 480 0
FLAG 352 496 0
FLAG 432 480 0
FLAG 624 496 0
FLAG 704 480 0
FLAG 448 144 VDD
SYMBOL FUNC_BLOCK 144 176 R0
SYMATTR InstName X1
SYMBOL res 608 400 R0
SYMATTR InstName R1
SYMBOL res 336 400 R0
SYMATTR InstName R2
SYMBOL res 64 400 R0
SYMATTR InstName R3
SYMBOL res -272 400 R0
SYMATTR InstName R4
SYMBOL cap 688 416 R0
SYMATTR InstName C1
SYMBOL cap 416 416 R0
SYMATTR InstName C2
SYMBOL cap 144 416 R0
SYMATTR InstName C3
SYMBOL cap -192 416 R0
SYMATTR InstName C4
