Version 4
SHEET 1 880 680
WIRE 112 0 112 -368
WIRE 160 0 160 -256
WIRE 208 0 208 -144
WIRE 256 0 256 -48
WIRE 672 96 672 48
WIRE 448 144 336 144
WIRE 624 320 288 320
WIRE 704 320 624 320
WIRE -176 352 -256 352
WIRE 112 352 112 320
WIRE 112 352 -176 352
WIRE 160 384 80 384
WIRE 176 384 176 320
WIRE 176 384 160 384
WIRE 240 384 240 320
WIRE 352 384 240 384
WIRE 432 384 352 384
WIRE -256 416 -256 352
WIRE -176 416 -176 352
WIRE 80 416 80 384
WIRE 160 416 160 384
WIRE 352 416 352 384
WIRE 432 416 432 384
WIRE 624 416 624 320
WIRE 704 416 704 320
FLAG -256 496 0
FLAG -176 480 0
FLAG 80 496 0
FLAG 160 480 0
FLAG 352 496 0
FLAG 432 480 0
FLAG 624 496 0
FLAG 704 480 0
FLAG 448 144 VDD
FLAG 112 -448 0
FLAG 160 -336 0
FLAG 208 -224 0
FLAG 256 -128 0
FLAG 672 176 0
FLAG 672 48 VDD
SYMBOL FUNC_BLOCK 144 176 R0
SYMATTR InstName X1
SYMBOL res 608 400 R0
SYMATTR InstName R1
SYMATTR Value 100k
SYMBOL res 336 400 R0
SYMATTR InstName R2
SYMATTR Value 100k
SYMBOL res 64 400 R0
SYMATTR InstName R3
SYMATTR Value 100k
SYMBOL res -272 400 R0
SYMATTR InstName R4
SYMATTR Value 100k
SYMBOL cap 688 416 R0
SYMATTR InstName C1
SYMATTR Value 100f
SYMBOL cap 416 416 R0
SYMATTR InstName C2
SYMATTR Value 100f
SYMBOL cap 144 416 R0
SYMATTR InstName C3
SYMATTR Value 100f
SYMBOL cap -192 416 R0
SYMATTR InstName C4
SYMATTR Value 100f
SYMBOL voltage 256 -32 R180
WINDOW 0 -54 89 Left 2
WINDOW 3 -58 33 Left 2
WINDOW 123 0 0 Left 0
WINDOW 39 0 0 Left 0
SYMATTR InstName V1
SYMATTR Value 0
SYMBOL voltage 208 -128 R180
WINDOW 0 -61 95 Left 2
WINDOW 3 -58 39 Left 2
WINDOW 123 0 0 Left 0
WINDOW 39 0 0 Left 0
SYMATTR InstName V2
SYMATTR Value 0
SYMBOL voltage 160 -240 R180
WINDOW 0 -71 95 Left 2
WINDOW 3 -57 45 Left 2
WINDOW 123 0 0 Left 0
WINDOW 39 0 0 Left 0
SYMATTR InstName V3
SYMATTR Value 0
SYMBOL voltage 112 -352 R180
WINDOW 0 -66 94 Left 2
WINDOW 3 -60 38 Left 2
WINDOW 123 0 0 Left 0
WINDOW 39 0 0 Left 0
SYMATTR InstName V4
SYMATTR Value 0
SYMBOL voltage 672 80 R0
WINDOW 123 0 0 Left 0
WINDOW 39 0 0 Left 0
SYMATTR InstName VDD1
SYMATTR Value 1
TEXT -224 96 Left 2 !.tran 0 8n 0 1p
TEXT -224 136 Left 2 !.include 90nm_bulk.txt
