Version 4
SHEET 1 880 680
WIRE 192 -64 192 -96
WIRE 48 80 -640 80
WIRE 688 96 320 96
WIRE 816 96 688 96
WIRE 688 112 688 96
WIRE 816 112 816 96
WIRE 48 128 -528 128
WIRE 48 176 -416 176
WIRE 528 176 320 176
WIRE 528 272 528 176
WIRE 640 272 528 272
WIRE 528 304 528 272
WIRE 640 304 640 272
FLAG 528 384 0
FLAG 640 368 0
FLAG 688 192 0
FLAG 816 176 0
FLAG -640 160 0
FLAG -528 208 0
FLAG -416 256 0
FLAG 144 480 0
FLAG 144 400 VDD
FLAG 192 -96 VDD
SYMBOL ADDER 192 128 R0
SYMATTR InstName X1
SYMBOL res 672 96 R0
SYMATTR InstName R1
SYMATTR Value 100k
SYMBOL res 512 288 R0
SYMATTR InstName R2
SYMATTR Value 100k
SYMBOL cap 800 112 R0
SYMATTR InstName C1
SYMATTR Value 100f
SYMBOL cap 624 304 R0
SYMATTR InstName C2
SYMATTR Value 100f
SYMBOL voltage -416 160 R0
WINDOW 0 -50 -2 Left 2
WINDOW 3 -3 -3 Left 2
WINDOW 123 0 0 Left 0
WINDOW 39 0 0 Left 0
SYMATTR InstName V1
SYMATTR Value PULSE(0 1 1n 10p 10p 8n 16n)
SYMBOL voltage -528 112 R0
WINDOW 0 -68 -4 Left 2
WINDOW 3 -24 -4 Left 2
WINDOW 123 0 0 Left 0
WINDOW 39 0 0 Left 0
SYMATTR InstName V2
SYMATTR Value PULSE(1 1 1n 10p 10p 8n 16n)
SYMBOL voltage -640 64 R0
WINDOW 0 -104 -6 Left 2
WINDOW 3 -60 -4 Left 2
WINDOW 123 0 0 Left 0
WINDOW 39 0 0 Left 0
SYMATTR InstName V3
SYMATTR Value PULSE(1 1 1n 10p 10p 8n 16n)
SYMBOL voltage 144 384 R0
WINDOW 123 0 0 Left 0
WINDOW 39 0 0 Left 0
SYMATTR InstName VDD1
SYMATTR Value 1
TEXT -328 280 Left 2 !.tran 0 64n 0 1p
TEXT -328 312 Left 2 !.include 90nm_bulk.txt
