Version 4
SHEET 1 1356 980
WIRE 80 96 80 -928
WIRE 144 96 144 -816
WIRE 192 96 192 -688
WIRE 224 96 224 -560
WIRE 256 96 256 -416
WIRE 304 96 304 -272
WIRE 368 96 368 -144
WIRE 464 96 464 0
WIRE 544 160 464 160
WIRE 640 208 640 160
WIRE 640 240 640 208
WIRE -608 368 -688 368
WIRE 80 368 80 288
WIRE 80 368 -608 368
WIRE 464 384 464 288
WIRE 1216 384 464 384
WIRE 1296 384 1216 384
WIRE 384 400 384 288
WIRE 944 400 384 400
WIRE 1024 400 944 400
WIRE -288 416 -384 416
WIRE 160 416 160 288
WIRE 160 416 -288 416
WIRE 288 416 288 288
WIRE 656 416 288 416
WIRE 736 416 656 416
WIRE -64 448 -144 448
WIRE 192 448 192 288
WIRE 192 448 -64 448
WIRE 256 448 256 288
WIRE 400 448 256 448
WIRE 480 448 400 448
WIRE 176 480 96 480
WIRE 224 480 224 288
WIRE 224 480 176 480
WIRE -688 512 -688 368
WIRE -608 512 -608 368
WIRE -384 512 -384 416
WIRE -288 512 -288 416
WIRE -144 512 -144 448
WIRE -64 512 -64 448
WIRE 96 512 96 480
WIRE 176 512 176 480
WIRE 400 512 400 448
WIRE 480 512 480 448
WIRE 656 512 656 416
WIRE 736 512 736 416
WIRE 944 512 944 400
WIRE 1024 512 1024 400
WIRE 1216 512 1216 384
WIRE 1296 512 1296 384
FLAG 640 320 0
FLAG 640 208 VDD
FLAG 1296 576 0
FLAG 1216 592 0
FLAG 1024 576 0
FLAG 944 592 0
FLAG 736 576 0
FLAG 656 592 0
FLAG 480 576 0
FLAG 400 592 0
FLAG 176 576 0
FLAG 96 592 0
FLAG -64 576 0
FLAG -144 592 0
FLAG -288 576 0
FLAG -384 592 0
FLAG -608 576 0
FLAG -688 592 0
FLAG 464 -80 0
FLAG 368 -224 0
FLAG 304 -352 0
FLAG 256 -496 0
FLAG 224 -640 0
FLAG 192 -768 0
FLAG 144 -896 0
FLAG 80 -1008 0
FLAG 544 160 VDD
SYMBOL voltage 640 224 R0
WINDOW 3 48 51 Left 2
WINDOW 123 0 0 Left 0
WINDOW 39 0 0 Left 0
SYMATTR Value 1
SYMATTR InstName VDD1
SYMBOL BCD_2_BIN 272 176 R0
SYMATTR InstName X1
SYMBOL res 1200 496 R0
SYMATTR InstName R1
SYMATTR Value 100k
SYMBOL res 928 496 R0
SYMATTR InstName R2
SYMATTR Value 100k
SYMBOL res 640 496 R0
SYMATTR InstName R3
SYMATTR Value 100k
SYMBOL res 384 496 R0
SYMATTR InstName R4
SYMATTR Value 100k
SYMBOL res 80 496 R0
SYMATTR InstName R5
SYMATTR Value 100k
SYMBOL res -160 496 R0
SYMATTR InstName R6
SYMATTR Value 100k
SYMBOL res -400 496 R0
SYMATTR InstName R7
SYMATTR Value 100k
SYMBOL res -704 496 R0
SYMATTR InstName R8
SYMATTR Value 100k
SYMBOL cap 1280 512 R0
SYMATTR InstName C1
SYMATTR Value 100f
SYMBOL cap 1008 512 R0
SYMATTR InstName C2
SYMATTR Value 100f
SYMBOL cap 720 512 R0
SYMATTR InstName C3
SYMATTR Value 100f
SYMBOL cap 464 512 R0
SYMATTR InstName C4
SYMATTR Value 100f
SYMBOL cap 160 512 R0
SYMATTR InstName C5
SYMATTR Value 100f
SYMBOL cap -80 512 R0
SYMATTR InstName C6
SYMATTR Value 100f
SYMBOL cap -304 512 R0
SYMATTR InstName C7
SYMATTR Value 100f
SYMBOL cap -624 512 R0
SYMATTR InstName C8
SYMATTR Value 100f
SYMBOL voltage 464 16 R180
WINDOW 0 -68 80 Left 2
WINDOW 3 -47 15 Left 2
WINDOW 123 0 0 Left 0
WINDOW 39 0 0 Left 0
SYMATTR InstName V1
SYMATTR Value 1
SYMBOL voltage 368 -128 R180
WINDOW 0 -68 80 Left 2
WINDOW 3 -59 23 Left 2
WINDOW 123 0 0 Left 0
WINDOW 39 0 0 Left 0
SYMATTR InstName V2
SYMATTR Value 0
SYMBOL voltage 304 -256 R180
WINDOW 0 -68 80 Left 2
WINDOW 3 -49 25 Left 2
WINDOW 123 0 0 Left 0
WINDOW 39 0 0 Left 0
SYMATTR InstName V3
SYMATTR Value 1
SYMBOL voltage 256 -400 R180
WINDOW 0 -68 80 Left 2
WINDOW 3 -46 23 Left 2
WINDOW 123 0 0 Left 0
WINDOW 39 0 0 Left 0
SYMATTR InstName V4
SYMATTR Value 0
SYMBOL voltage 224 -544 R180
WINDOW 0 -68 80 Left 2
WINDOW 3 -43 24 Left 2
WINDOW 123 0 0 Left 0
WINDOW 39 0 0 Left 0
SYMATTR InstName V5
SYMATTR Value 1
SYMBOL voltage 192 -672 R180
WINDOW 0 -68 80 Left 2
WINDOW 3 -60 29 Left 2
WINDOW 123 0 0 Left 0
WINDOW 39 0 0 Left 0
SYMATTR InstName V6
SYMATTR Value 1
SYMBOL voltage 144 -800 R180
WINDOW 0 -68 80 Left 2
WINDOW 3 -65 28 Left 2
WINDOW 123 0 0 Left 0
WINDOW 39 0 0 Left 0
SYMATTR InstName V7
SYMATTR Value 1
SYMBOL voltage 80 -912 R180
WINDOW 0 -98 84 Left 2
WINDOW 3 -82 39 Left 2
WINDOW 123 0 0 Left 0
WINDOW 39 0 0 Left 0
SYMATTR InstName V8
SYMATTR Value PULSE(1 0 1n 10p 10p 4n 8n)
TEXT -312 96 Left 2 !.include 90nm_bulk.txt
TEXT -312 56 Left 2 !.tran 0 16n 0 1p
